data_image0
loop_
_cell_length_a 3.184
_cell_length_b 3.184
_cell_length_c 3.127
_cell_angle_alpha 90
_cell_angle_beta 90
_cell_angle_gamma 120
_cell_volume 52.39
_cell_formula_units_Z 1
_symmetry_space_group_name_H-M 'P -3 m 1'
loop_
  _atom_site_label
  _atom_site_type_symbol
  _atom_site_occupancy
  _atom_site_Cartn_x
  _atom_site_Cartn_y
  _atom_site_Cartn_z
  _atom_site_thermal_displace_type
  _atom_site_B_iso_or_equiv
  Mo1   Mo4+   1.0000 0.00000  0.00000  0.00000  Biso   1.000 
  S1    S2-   1.0000 1.59200  0.91914  1.56350  Biso   1.000 
  S2    S2-   1.0000 1.59200  0.91914  -1.56350  Biso   1.000 
#End 
